24

H          1.21943       -0.16516        2.15996
C          0.68248       -0.09239        1.20875
C         -0.70744       -0.03519        1.19732
H         -1.26436       -0.06297        2.13935
C         -1.38982        0.05722       -0.01143
H         -2.48356        0.10214       -0.02044
C         -0.68242        0.09248       -1.20876
H         -1.21940        0.16520       -2.15990
C          0.70748        0.03523       -1.19730
H          1.26413        0.06285       -2.13946
C          1.38989       -0.05717        0.01143
H          2.48360       -0.10222        0.02049
H          0.18033        6.34475        2.58111
C          0.19958        5.87737        1.59139
C          0.15293        4.49187        1.47552
H          0.09699        3.86881        2.37399
C          0.17749        3.89781        0.21788
H          0.14089        2.80746        0.12676
C          0.24862        4.68917       -0.92410
H          0.26795        4.22168       -1.91371
C          0.29537        6.07467       -0.80821
H          0.35151        6.69734       -1.70679
C          0.27081        6.66873        0.44942
H          0.30750        7.75897        0.54065
